Version 4
SHEET 1 1864 680
WIRE 1440 -288 400 -288
WIRE 1840 -288 1440 -288
WIRE -112 -272 -224 -272
WIRE 0 -272 -112 -272
WIRE 48 -272 0 -272
WIRE 400 -272 400 -288
WIRE 400 -272 48 -272
WIRE -224 -160 -224 -272
WIRE 1440 -112 1440 -288
WIRE 0 -96 0 -272
WIRE 1776 -64 1504 -64
WIRE -224 -32 -224 -80
WIRE 1760 -32 1440 -32
WIRE -112 -16 -112 -272
WIRE 320 -16 0 -16
WIRE 1440 0 1440 -32
WIRE 1520 16 1472 16
WIRE 1840 16 1840 -288
WIRE 1840 16 1744 16
WIRE 80 32 32 32
WIRE 400 32 400 -272
WIRE 400 32 304 32
WIRE -112 64 -128 64
WIRE 1504 80 1504 -64
WIRE 1520 80 1504 80
WIRE 1760 80 1760 -32
WIRE 1760 80 1744 80
WIRE 80 96 -64 96
WIRE 320 96 320 -16
WIRE 320 96 304 96
WIRE 1440 96 1440 80
WIRE 1504 96 1504 80
WIRE 1504 96 1440 96
WIRE -128 128 -128 64
WIRE -64 128 -64 96
WIRE -64 128 -128 128
WIRE 1520 144 1408 144
WIRE 1776 144 1776 -64
WIRE 1776 144 1744 144
WIRE -128 160 -128 128
WIRE 80 160 -32 160
WIRE 320 160 320 96
WIRE 320 160 304 160
WIRE -240 208 -320 208
WIRE -192 208 -240 208
WIRE 1520 208 832 208
WIRE 1792 208 1744 208
WIRE -320 224 -320 208
WIRE 48 224 48 -272
WIRE 80 224 48 224
WIRE 352 224 304 224
WIRE -32 272 -32 160
WIRE 832 272 832 208
WIRE 832 272 -32 272
WIRE 1440 288 1440 96
WIRE 1440 288 1424 288
WIRE 1472 288 1472 16
WIRE 1536 288 1472 288
WIRE 1792 288 1792 208
WIRE 0 304 0 -16
WIRE 0 304 -16 304
WIRE 32 304 32 32
WIRE 96 304 32 304
WIRE 352 304 352 224
WIRE 1424 304 1424 288
WIRE -16 320 -16 304
WIRE 1424 480 1424 368
WIRE 1536 480 1536 288
WIRE 1536 480 1424 480
WIRE 1792 480 1792 352
WIRE 1792 480 1536 480
WIRE -320 496 -320 304
WIRE -128 496 -128 256
WIRE -128 496 -320 496
WIRE -16 496 -16 384
WIRE -16 496 -128 496
WIRE 96 496 96 304
WIRE 96 496 -16 496
WIRE 352 496 352 368
WIRE 352 496 96 496
WIRE 1536 496 1536 480
WIRE 96 512 96 496
FLAG 96 512 0
FLAG -224 -32 0
FLAG 1536 496 0
FLAG 1408 144 ouput
FLAG -240 208 input
FLAG 832 208 bridge
SYMBOL Misc\\NE555 192 128 R0
SYMATTR InstName U1
SYMBOL res -128 -32 R0
SYMATTR InstName R1
SYMATTR Value 10k
SYMBOL res -16 -112 R0
SYMATTR InstName R2
SYMATTR Value 180k
SYMBOL cap -32 320 R0
SYMATTR InstName C1
SYMATTR Value 10”
SYMBOL cap 336 304 R0
SYMATTR InstName C2
SYMATTR Value 100n
SYMBOL voltage -224 -176 R0
WINDOW 123 0 0 Left 0
WINDOW 39 0 0 Left 0
SYMATTR InstName V1
SYMATTR Value 5
SYMBOL voltage -320 208 R0
WINDOW 123 0 0 Left 0
WINDOW 39 0 0 Left 0
SYMATTR InstName V2
SYMATTR Value PULSE(0 5 2 0 0 8 10 0)
SYMBOL npn -192 160 R0
SYMATTR InstName Q1
SYMBOL Misc\\NE555 1632 112 R0
SYMATTR InstName U3
SYMBOL res 1424 -128 R0
SYMATTR InstName R4
SYMATTR Value 10k
SYMBOL cap 1408 304 R0
SYMATTR InstName C3
SYMATTR Value 10”F
SYMBOL cap 1776 288 R0
SYMATTR InstName C4
SYMATTR Value 100n
SYMBOL res 1424 -16 R0
SYMATTR InstName R5
SYMATTR Value 68k
TEXT -352 536 Left 2 !.tran 10
